version 2
run _1000nodes_w3_5updates-0-20150504-10:21:05-19623
attr configname _1000nodes_w3_5updates
attr datetime 20150504-10:21:05
attr experiment _1000nodes_w3_5updates
attr inifile CBR_advanced.ini
attr iterationvars ""
attr iterationvars2 $repetition=0
attr measurement ""
attr network CBR_advanced_Network_1000
attr processid 19623
attr repetition 0
attr replication #0
attr resultdir results
attr runnumber 0
attr seedset 0

