version 2
run _1000nodes_w3_audio128-0-20150504-13:52:49-21383
attr configname _1000nodes_w3_audio128
attr datetime 20150504-13:52:49
attr experiment _1000nodes_w3_audio128
attr inifile CBR_advanced.ini
attr iterationvars ""
attr iterationvars2 $repetition=0
attr measurement ""
attr network CBR_advanced_Network_1000
attr processid 21383
attr repetition 0
attr replication #0
attr resultdir results
attr runnumber 0
attr seedset 0

