version 2
run _1000nodes_f3_w3-0-20150727-18:19:00-25877
attr configname _1000nodes_f3_w3
attr datetime 20150727-18:19:00
attr experiment _1000nodes_f3_w3
attr inifile CBR_advanced.ini
attr iterationvars ""
attr iterationvars2 $repetition=0
attr measurement ""
attr network CBR_advanced_Network_1000
attr processid 25877
attr repetition 0
attr replication #0
attr resultdir results
attr runnumber 0
attr seedset 0

