version 2
run _1000nodes_w3_360p-0-20150728-16:06:38-31467
attr configname _1000nodes_w3_360p
attr datetime 20150728-16:06:38
attr experiment _1000nodes_w3_360p
attr inifile CBR_advanced.ini
attr iterationvars ""
attr iterationvars2 $repetition=0
attr measurement ""
attr network CBR_advanced_Network_1000
attr processid 31467
attr repetition 0
attr replication #0
attr resultdir results
attr runnumber 0
attr seedset 0

