version 2
run _1000nodes_f3_w3_160-0-20150402-14:40:54-11780
attr configname _1000nodes_f3_w3_160
attr datetime 20150402-14:40:54
attr experiment _1000nodes_f3_w3_160
attr inifile CBR_advanced.ini
attr iterationvars ""
attr iterationvars2 $repetition=0
attr measurement ""
attr network CBR_advanced_Network_1000
attr processid 11780
attr repetition 0
attr replication #0
attr resultdir results
attr runnumber 0
attr seedset 0

