version 2
run _1000nodes_w3_100000B-0-20150502-15:16:40-15695
attr configname _1000nodes_w3_100000B
attr datetime 20150502-15:16:40
attr experiment _1000nodes_w3_100000B
attr inifile CBR_advanced.ini
attr iterationvars ""
attr iterationvars2 $repetition=0
attr measurement ""
attr network CBR_advanced_Network_1000
attr processid 15695
attr repetition 0
attr replication #0
attr resultdir results
attr runnumber 0
attr seedset 0

