version 2
run _1000nodes_f3_w4_40-0-20150403-10:36:28-13960
attr configname _1000nodes_f3_w4_40
attr datetime 20150403-10:36:28
attr experiment _1000nodes_f3_w4_40
attr inifile CBR_advanced.ini
attr iterationvars ""
attr iterationvars2 $repetition=0
attr measurement ""
attr network CBR_advanced_Network_1000
attr processid 13960
attr repetition 0
attr replication #0
attr resultdir results
attr runnumber 0
attr seedset 0

