version 2
run _1000nodes_f3_w3_80-0-20150402-13:46:47-11093
attr configname _1000nodes_f3_w3_80
attr datetime 20150402-13:46:47
attr experiment _1000nodes_f3_w3_80
attr inifile CBR_advanced.ini
attr iterationvars ""
attr iterationvars2 $repetition=0
attr measurement ""
attr network CBR_advanced_Network_1000
attr processid 11093
attr repetition 0
attr replication #0
attr resultdir results
attr runnumber 0
attr seedset 0

