version 2
run _1000nodes_f5_w5_160-0-20150402-15:17:43-11824
attr configname _1000nodes_f5_w5_160
attr datetime 20150402-15:17:43
attr experiment _1000nodes_f5_w5_160
attr inifile CBR_advanced.ini
attr iterationvars ""
attr iterationvars2 $repetition=0
attr measurement ""
attr network CBR_advanced_Network_1000
attr processid 11824
attr repetition 0
attr replication #0
attr resultdir results
attr runnumber 0
attr seedset 0

