version 2
run _1000nodes_w3_100updates-0-20150505-14:29:04-27369
attr configname _1000nodes_w3_100updates
attr datetime 20150505-14:29:04
attr experiment _1000nodes_w3_100updates
attr inifile CBR_advanced.ini
attr iterationvars ""
attr iterationvars2 $repetition=0
attr measurement ""
attr network CBR_advanced_Network_1000
attr processid 27369
attr repetition 0
attr replication #0
attr resultdir results
attr runnumber 0
attr seedset 0

